-------------------------------------------------------
          Amber 24 PMEMD                              2024
          -------------------------------------------------------

  [-O]verwriting output

File Assignments:

 Here is the input file:

&cntrl
imin=0, irest=1, ntx=5, 		!For files 2-4: irest=1, ntx=5.
nstlim=10000, dt=0.001, 		!Number of time steps and size (ps).
ntc=2, ntf=2, ig=-1,
ntt=3, gamma_ln=2.0,
tempi=250.0, temp0=310.0, 		!Initial and final temperatures.
ntxo=2, ioutfm=1,
ntpr=100, ntwx=100,
ntb=1,
cut=9.0,
ntr=1, restraint_wt=5.0, restraintmask='@CA,N,C',
/

Note: ig = -1. Setting random seed to    33196 based on wallclock time in
      microseconds.

--------------------------------------------------------------------------------
   1.  RESOURCE   USE:
--------------------------------------------------------------------------------

 getting box info from netcdf restart file
 NATOM  =  101202 NTYPES =      11 NBONH =   98658 MBONA  =    2544
 NTHETH =    5904 MTHETA =    3408 NPHIH =   11760 MPHIA  =   10368
 NHPARM =       0 NPARM  =       0 NNB   =  155656 NRES   =   32422
 NBONA  =    2544 NTHETA =    3408 NPHIA =   10368 NUMBND =      27
 NUMANG =      54 NPTRA  =      59 NATYP =      16 NPHB   =       0
 IFBOX  =       2 NMXRS  =      21 IFCAP =       0 NEXTRA =       0
 NCOPY  =       0

     BOX TYPE: TRUNCATED OCTAHEDRON

--------------------------------------------------------------------------------
   2.  CONTROL  DATA  FOR  THE  RUN
--------------------------------------------------------------------------------

default_name

General flags:
     imin    =       0, nmropt  =       0

Nature and format of input:
     ntx     =       5, irest   =       1, ntrx    =       1

Nature and format of output:
     ntxo    =       2, ntpr    =     100, ntrx    =       1, ntwr    =   10000
     iwrap   =       0, ntwx    =     100, ntwv    =       0, ntwe    =       0
     ioutfm  =       1, ntwprt  =       0, idecomp =       0, rbornstat=      0

Potential function:
     ntf     =       2, ntb     =       1, igb     =       0, nsnb    =      25
     ipol    =       0, gbsa    =       0, iesp    =       0
     dielc   =   1.00000, cut     =   9.00000, intdiel =   1.00000

Frozen or restrained atoms:
     ibelly  =       0, ntr     =       1
     restraint_wt =   5.00000

Molecular dynamics:
     nstlim  =     10000, nscm    =         0, nrespa  =         1
     t       =   0.00000, dt      =   0.00100, vlimit  =  -1.00000

Langevin dynamics temperature regulation:
     ig      =   33196
     temp0   = 310.00000, tempi   = 250.00000, gamma_ln=   2.00000

SHAKE:
     ntc     =       2, jfastw  =       0
     tol     =   0.00001

Ewald parameters:
     verbose =       0, ew_type =       0, nbflag  =       1, use_pme =       1
     vdwmeth =       1, eedmeth =       1, netfrc  =       1
     Box X =  114.902   Box Y =  114.902   Box Z =  114.902
     Alpha =  109.471   Beta  =  109.471   Gamma =  109.471
     NFFT1 =  120       NFFT2 =  120       NFFT3 =  120
     Cutoff=    9.000   Tol   =0.100E-04
     Ewald Coefficient =  0.30768
     Interpolation order =    4

    LOADING THE CONSTRAINED ATOMS AS GROUPS

   5.  REFERENCE ATOM COORDINATES

  default_name
     Mask @CA,N,C; matches  1152 atoms

--------------------------------------------------------------------------------
   3.  ATOMIC COORDINATES AND VELOCITIES
--------------------------------------------------------------------------------

default_name
 begin time read from input coords =    30.000 ps

 Number of triangulated 3-point waters found:    31990

     Sum of charges from parm topology file =  -0.00000047
     Forcing neutrality...

--------------------------------------------------------------------------------
   4.  RESULTS
 NSTEP =      100   TIME(PS) =      30.100  TEMP(K) =   260.86  PRESS =     0.0
 Etot   =   -267696.5342  EKtot   =     53120.5625  EPtot      =   -320817.0967
 BOND   =      1971.4821  ANGLE   =      2063.4593  DIHED      =      1429.0325
 UB     =         0.0000  IMP     =         0.0000  CMAP       =       322.9400
 1-4 NB =      1153.9880  1-4 EEL =     15196.8620  VDWAALS    =     48073.0174
 EELEC  =   -391236.2979  EHBOND  =         0.0000  RESTRAINT  =       208.4199
 EAMBER (non-restraint)  =   -321025.5165
 ------------------------------------------------------------------------------

      A V E R A G E S   O V E R     100 S T E P S

 NSTEP =    10000   TIME(PS) =      40.000  TEMP(K) =   305.46  PRESS =     0.0
 Etot   =   -237305.1835  EKtot   =     62203.2771  EPtot      =   -299508.4606
 BOND   =      2062.1019  ANGLE   =      2388.3717  DIHED      =      1533.9672
 UB     =         0.0000  IMP     =         0.0000  CMAP       =       324.6640
 1-4 NB =      1190.1019  1-4 EEL =     15207.7390  VDWAALS    =     40613.6566
 EELEC  =   -363115.1665  EHBOND  =         0.0000  RESTRAINT  =       286.1035
 EAMBER (non-restraint)  =   -299794.5641
 ------------------------------------------------------------------------------

      R M S  F L U C T U A T I O N S

 NSTEP =    10000   TIME(PS) =      40.000  TEMP(K) =     9.28  PRESS =     0.0
 Etot   =      6831.9344  EKtot   =      1889.1644  EPtot      =      4957.0322
 BOND   =        40.4660  ANGLE   =        59.7549  DIHED      =        28.2736
 UB     =         0.0000  IMP     =         0.0000  CMAP       =         6.9647
 1-4 NB =        14.5068  1-4 EEL =        35.3506  VDWAALS    =      1827.6324
 EELEC  =      6672.4471  EHBOND  =         0.0000  RESTRAINT  =        17.3611
 EAMBER (non-restraint)  =      4939.6711
 ------------------------------------------------------------------------------
