-------------------------------------------------------
          Amber 24 PMEMD                              2024
          -------------------------------------------------------

  [-O]verwriting output

File Assignments:

 Here is the input file:

&cntrl
imin=0, irest=0, ntx=1, 		! For files 2-4: irest=1, ntx=5.
nstlim=10000, dt=0.001, 		! Number of time steps and size (ps).
ntc=2, ntf=2, ig=-1,
ntt=3, gamma_ln=2.0,
tempi=0.0, temp0=100.0, 		! Initial and final temperatures.
ntxo=2, ioutfm=1,
ntpr=100, ntwx=100, ntwr=1000
ntb=1,
cut=9.0,
ntr=1, restraint_wt=5.0, restraintmask='@CA,N,C',
/

Note: ig = -1. Setting random seed to   158736 based on wallclock time in
      microseconds.

--------------------------------------------------------------------------------
   1.  RESOURCE   USE:
--------------------------------------------------------------------------------

 getting box info from netcdf restart file
 NATOM  =  101202 NTYPES =      11 NBONH =   98658 MBONA  =    2544
 NTHETH =    5904 MTHETA =    3408 NPHIH =   11760 MPHIA  =   10368
 NHPARM =       0 NPARM  =       0 NNB   =  155656 NRES   =   32422
 NBONA  =    2544 NTHETA =    3408 NPHIA =   10368 NUMBND =      27
 NUMANG =      54 NPTRA  =      59 NATYP =      16 NPHB   =       0
 IFBOX  =       2 NMXRS  =      21 IFCAP =       0 NEXTRA =       0
 NCOPY  =       0

     BOX TYPE: TRUNCATED OCTAHEDRON

--------------------------------------------------------------------------------
   2.  CONTROL  DATA  FOR  THE  RUN
--------------------------------------------------------------------------------

default_name

General flags:
     imin    =       0, nmropt  =       0

Nature and format of input:
     ntx     =       1, irest   =       0, ntrx    =       1

Nature and format of output:
     ntxo    =       2, ntpr    =     100, ntrx    =       1, ntwr    =    1000
     iwrap   =       0, ntwx    =     100, ntwv    =       0, ntwe    =       0
     ioutfm  =       1, ntwprt  =       0, idecomp =       0, rbornstat=      0

Potential function:
     ntf     =       2, ntb     =       1, igb     =       0, nsnb    =      25
     ipol    =       0, gbsa    =       0, iesp    =       0
     dielc   =   1.00000, cut     =   9.00000, intdiel =   1.00000

Frozen or restrained atoms:
     ibelly  =       0, ntr     =       1
     restraint_wt =   5.00000

Molecular dynamics:
     nstlim  =     10000, nscm    =         0, nrespa  =         1
     t       =   0.00000, dt      =   0.00100, vlimit  =  -1.00000

Langevin dynamics temperature regulation:
     ig      =  158736
     temp0   = 100.00000, tempi   =   0.00000, gamma_ln=   2.00000

SHAKE:
     ntc     =       2, jfastw  =       0
     tol     =   0.00001

Ewald parameters:
     verbose =       0, ew_type =       0, nbflag  =       1, use_pme =       1
     vdwmeth =       1, eedmeth =       1, netfrc  =       1
     Box X =  114.902   Box Y =  114.902   Box Z =  114.902
     Alpha =  109.471   Beta  =  109.471   Gamma =  109.471
     NFFT1 =  120       NFFT2 =  120       NFFT3 =  120
     Cutoff=    9.000   Tol   =0.100E-04
     Ewald Coefficient =  0.30768
     Interpolation order =    4

    LOADING THE CONSTRAINED ATOMS AS GROUPS

   5.  REFERENCE ATOM COORDINATES

  default_name
     Mask @CA,N,C; matches  1152 atoms

--------------------------------------------------------------------------------
   3.  ATOMIC COORDINATES AND VELOCITIES
--------------------------------------------------------------------------------

default_name
 begin time read from input coords =     0.000 ps

 Number of triangulated 3-point waters found:    31990

     Sum of charges from parm topology file =  -0.00000047
     Forcing neutrality...

--------------------------------------------------------------------------------
   4.  RESULTS
 NSTEP =        0   TIME(PS) =       0.000  TEMP(K) =     0.00  PRESS =     0.0
 Etot   =   -276805.0680  EKtot   =         0.0000  EPtot      =   -276805.0680
 BOND   =      4170.5949  ANGLE   =      5036.3080  DIHED      =      1871.3670
 UB     =         0.0000  IMP     =         0.0000  CMAP       =       429.9816
 1-4 NB =      5271.5791  1-4 EEL =     15286.5627  VDWAALS    =     45955.9010
 EELEC  =   -354827.3622  EHBOND  =         0.0000  RESTRAINT  =         0.0000
 ------------------------------------------------------------------------------

      A V E R A G E S   O V E R     100 S T E P S

 NSTEP =    10000   TIME(PS) =      10.000  TEMP(K) =   111.52  PRESS =     0.0
 Etot   =   -340418.9929  EKtot   =     22709.1642  EPtot      =   -363128.1571
 BOND   =      1568.1006  ANGLE   =      1217.3682  DIHED      =      1290.9227
 UB     =         0.0000  IMP     =         0.0000  CMAP       =       354.7902
 1-4 NB =      1110.7318  1-4 EEL =     15214.0934  VDWAALS    =     60158.3481
 EELEC  =   -444574.4755  EHBOND  =         0.0000  RESTRAINT  =       531.9633
 EAMBER (non-restraint)  =   -363660.1204
 ------------------------------------------------------------------------------

      R M S  F L U C T U A T I O N S

 NSTEP =    10000   TIME(PS) =      10.000  TEMP(K) =    25.78  PRESS =     0.0
 Etot   =     16843.1734  EKtot   =      5250.0843  EPtot      =     11628.3351
 BOND   =       138.0738  ANGLE   =       345.0159  DIHED      =       108.7288
 UB     =         0.0000  IMP     =         0.0000  CMAP       =        10.9859
 1-4 NB =        35.6120  1-4 EEL =        28.8346  VDWAALS    =      3968.8436
 EELEC  =     14867.0782  EHBOND  =         0.0000  RESTRAINT  =       135.0791
 EAMBER (non-restraint)  =     11493.2560
 ------------------------------------------------------------------------------
