-------------------------------------------------------
          Amber 24 PMEMD                              2024
          -------------------------------------------------------

  [-O]verwriting output

File Assignments:

 Here is the input file:

!Stage equilibration 5ns
&cntrl
imin=0, irest=1, ntx=5,
nstlim=2500000, dt=0.002,
ntc=2, ntf=2, ig=-1,
ntt=3, gamma_ln=2.0,
tempi=310.0, temp0=310.0,
ntxo=2, ioutfm=1,
ntpr=20000, ntwx=20000,
ntb=1,
cut=9.0,
iwrap=1,
/

Note: ig = -1. Setting random seed to   774281 based on wallclock time in
      microseconds.

--------------------------------------------------------------------------------
   1.  RESOURCE   USE:
--------------------------------------------------------------------------------

 getting box info from netcdf restart file
 NATOM  =  101202 NTYPES =      11 NBONH =   98658 MBONA  =    2544
 NTHETH =    5904 MTHETA =    3408 NPHIH =   11760 MPHIA  =   10368
 NHPARM =       0 NPARM  =       0 NNB   =  155656 NRES   =   32422
 NBONA  =    2544 NTHETA =    3408 NPHIA =   10368 NUMBND =      27
 NUMANG =      54 NPTRA  =      59 NATYP =      16 NPHB   =       0
 IFBOX  =       2 NMXRS  =      21 IFCAP =       0 NEXTRA =       0
 NCOPY  =       0

     BOX TYPE: TRUNCATED OCTAHEDRON

--------------------------------------------------------------------------------
   2.  CONTROL  DATA  FOR  THE  RUN
--------------------------------------------------------------------------------

default_name

General flags:
     imin    =       0, nmropt  =       0

Nature and format of input:
     ntx     =       5, irest   =       1, ntrx    =       1

Nature and format of output:
     ntxo    =       2, ntpr    =   20000, ntrx    =       1, ntwr    = 2500000
     iwrap   =       1, ntwx    =   20000, ntwv    =       0, ntwe    =       0
     ioutfm  =       1, ntwprt  =       0, idecomp =       0, rbornstat=      0

Potential function:
     ntf     =       2, ntb     =       1, igb     =       0, nsnb    =      25
     ipol    =       0, gbsa    =       0, iesp    =       0
     dielc   =   1.00000, cut     =   9.00000, intdiel =   1.00000

Frozen or restrained atoms:
     ibelly  =       0, ntr     =       0

Molecular dynamics:
     nstlim  =   2500000, nscm    =      1000, nrespa  =         1
     t       =   0.00000, dt      =   0.00200, vlimit  =  -1.00000

Langevin dynamics temperature regulation:
     ig      =  774281
     temp0   = 310.00000, tempi   = 310.00000, gamma_ln=   2.00000

SHAKE:
     ntc     =       2, jfastw  =       0
     tol     =   0.00001

Ewald parameters:
     verbose =       0, ew_type =       0, nbflag  =       1, use_pme =       1
     vdwmeth =       1, eedmeth =       1, netfrc  =       1
     Box X =  114.902   Box Y =  114.902   Box Z =  114.902
     Alpha =  109.471   Beta  =  109.471   Gamma =  109.471
     NFFT1 =  120       NFFT2 =  120       NFFT3 =  120
     Cutoff=    9.000   Tol   =0.100E-04
     Ewald Coefficient =  0.30768
     Interpolation order =    4

--------------------------------------------------------------------------------
   3.  ATOMIC COORDINATES AND VELOCITIES
--------------------------------------------------------------------------------

default_name
 begin time read from input coords =365039.999 ps

 Number of triangulated 3-point waters found:    31990

     Sum of charges from parm topology file =  -0.00000047
     Forcing neutrality...

--------------------------------------------------------------------------------
   4.  RESULTS
 NSTEP =    20000   TIME(PS) =  365079.999  TEMP(K) =   310.80  PRESS =     0.0
 Etot   =   -238458.3267  EKtot   =     63289.6602  EPtot      =   -301747.9868
 BOND   =      2114.9932  ANGLE   =      2429.2721  DIHED      =      1407.6887
 UB     =         0.0000  IMP     =         0.0000  CMAP       =       229.0182
 1-4 NB =      1166.5001  1-4 EEL =     15383.0238  VDWAALS    =     40345.6248
 EELEC  =   -364824.1078  EHBOND  =         0.0000  RESTRAINT  =         0.0000
 ------------------------------------------------------------------------------

      A V E R A G E S   O V E R     125 S T E P S

 NSTEP =  2500000   TIME(PS) =  370039.999  TEMP(K) =   309.88  PRESS =     0.0
 Etot   =   -238787.3201  EKtot   =     63102.2236  EPtot      =   -301889.5437
 BOND   =      2092.9801  ANGLE   =      2418.4343  DIHED      =      1407.9466
 UB     =         0.0000  IMP     =         0.0000  CMAP       =       246.3980
 1-4 NB =      1171.8461  1-4 EEL =     15386.3411  VDWAALS    =     40739.3747
 EELEC  =   -365352.8645  EHBOND  =         0.0000  RESTRAINT  =         0.0000
 ------------------------------------------------------------------------------

      R M S  F L U C T U A T I O N S

 NSTEP =  2500000   TIME(PS) =  370039.999  TEMP(K) =     0.96  PRESS =     0.0
 Etot   =       375.6333  EKtot   =       195.6451  EPtot      =       307.5339
 BOND   =        31.5797  ANGLE   =        39.1371  DIHED      =        20.6238
 UB     =         0.0000  IMP     =         0.0000  CMAP       =        11.2208
 1-4 NB =        13.8150  1-4 EEL =        53.7608  VDWAALS    =       297.3595
 EELEC  =       491.3719  EHBOND  =         0.0000  RESTRAINT  =         0.0000
 ------------------------------------------------------------------------------
