-------------------------------------------------------
          Amber 24 PMEMD                              2024
          -------------------------------------------------------

  [-O]verwriting output

File Assignments:

 Here is the input file:

&cntrl
 imin=0, irest=1, ntx=5, 		!For files 2-4: irest=1, ntx=5.
nstlim=10000, dt=0.001, 		!Number of time steps and size (ps).
ntc=2, ntf=2, ig=-1,
ntt=3, gamma_ln=2.0,
tempi=100.0, temp0=200.0, 		!Initial and final temperatures.
ntxo=2, ioutfm=1,
ntpr=100, ntwx=100,
ntb=1,
cut=9.0,
ntr=1, restraint_wt=5.0, restraintmask='@CA,N,C',
/

Note: ig = -1. Setting random seed to   474518 based on wallclock time in
      microseconds.

--------------------------------------------------------------------------------
   1.  RESOURCE   USE:
--------------------------------------------------------------------------------

 getting box info from netcdf restart file
 NATOM  =  101202 NTYPES =      11 NBONH =   98658 MBONA  =    2544
 NTHETH =    5904 MTHETA =    3408 NPHIH =   11760 MPHIA  =   10368
 NHPARM =       0 NPARM  =       0 NNB   =  155656 NRES   =   32422
 NBONA  =    2544 NTHETA =    3408 NPHIA =   10368 NUMBND =      27
 NUMANG =      54 NPTRA  =      59 NATYP =      16 NPHB   =       0
 IFBOX  =       2 NMXRS  =      21 IFCAP =       0 NEXTRA =       0
 NCOPY  =       0

     BOX TYPE: TRUNCATED OCTAHEDRON

--------------------------------------------------------------------------------
   2.  CONTROL  DATA  FOR  THE  RUN
--------------------------------------------------------------------------------

default_name

General flags:
     imin    =       0, nmropt  =       0

Nature and format of input:
     ntx     =       5, irest   =       1, ntrx    =       1

Nature and format of output:
     ntxo    =       2, ntpr    =     100, ntrx    =       1, ntwr    =   10000
     iwrap   =       0, ntwx    =     100, ntwv    =       0, ntwe    =       0
     ioutfm  =       1, ntwprt  =       0, idecomp =       0, rbornstat=      0

Potential function:
     ntf     =       2, ntb     =       1, igb     =       0, nsnb    =      25
     ipol    =       0, gbsa    =       0, iesp    =       0
     dielc   =   1.00000, cut     =   9.00000, intdiel =   1.00000

Frozen or restrained atoms:
     ibelly  =       0, ntr     =       1
     restraint_wt =   5.00000

Molecular dynamics:
     nstlim  =     10000, nscm    =         0, nrespa  =         1
     t       =   0.00000, dt      =   0.00100, vlimit  =  -1.00000

Langevin dynamics temperature regulation:
     ig      =  474518
     temp0   = 200.00000, tempi   = 100.00000, gamma_ln=   2.00000

SHAKE:
     ntc     =       2, jfastw  =       0
     tol     =   0.00001

Ewald parameters:
     verbose =       0, ew_type =       0, nbflag  =       1, use_pme =       1
     vdwmeth =       1, eedmeth =       1, netfrc  =       1
     Box X =  114.902   Box Y =  114.902   Box Z =  114.902
     Alpha =  109.471   Beta  =  109.471   Gamma =  109.471
     NFFT1 =  120       NFFT2 =  120       NFFT3 =  120
     Cutoff=    9.000   Tol   =0.100E-04
     Ewald Coefficient =  0.30768
     Interpolation order =    4

    LOADING THE CONSTRAINED ATOMS AS GROUPS

   5.  REFERENCE ATOM COORDINATES

  default_name
     Mask @CA,N,C; matches  1152 atoms

--------------------------------------------------------------------------------
   3.  ATOMIC COORDINATES AND VELOCITIES
--------------------------------------------------------------------------------

default_name
 begin time read from input coords =    10.000 ps

 Number of triangulated 3-point waters found:    31990

     Sum of charges from parm topology file =  -0.00000047
     Forcing neutrality...

--------------------------------------------------------------------------------
   4.  RESULTS
 NSTEP =      100   TIME(PS) =      10.100  TEMP(K) =   119.28  PRESS =     0.0
 Etot   =   -342697.8987  EKtot   =     24290.5098  EPtot      =   -366988.4085
 BOND   =      1589.5066  ANGLE   =      1179.0620  DIHED      =      1281.0460
 UB     =         0.0000  IMP     =         0.0000  CMAP       =       337.9371
 1-4 NB =      1107.3087  1-4 EEL =     15209.8661  VDWAALS    =     63423.3960
 EELEC  =   -451258.2171  EHBOND  =         0.0000  RESTRAINT  =       141.6861
 EAMBER (non-restraint)  =   -367130.0946
 ------------------------------------------------------------------------------

      A V E R A G E S   O V E R     100 S T E P S

 NSTEP =    10000   TIME(PS) =      20.000  TEMP(K) =   195.04  PRESS =     0.0
 Etot   =   -306493.6798  EKtot   =     39717.2136  EPtot      =   -346210.8934
 BOND   =      1774.4176  ANGLE   =      1687.6243  DIHED      =      1376.5794
 UB     =         0.0000  IMP     =         0.0000  CMAP       =       347.6095
 1-4 NB =      1132.9452  1-4 EEL =     15202.1274  VDWAALS    =     56616.1808
 EELEC  =   -424566.9566  EHBOND  =         0.0000  RESTRAINT  =       218.5791
 EAMBER (non-restraint)  =   -346429.4724
 ------------------------------------------------------------------------------

      R M S  F L U C T U A T I O N S

 NSTEP =    10000   TIME(PS) =      20.000  TEMP(K) =    14.26  PRESS =     0.0
 Etot   =      6810.1224  EKtot   =      2903.1580  EPtot      =      3922.1083
 BOND   =        40.2934  ANGLE   =        92.1855  DIHED      =        24.6003
 UB     =         0.0000  IMP     =         0.0000  CMAP       =         5.7772
 1-4 NB =        12.4360  1-4 EEL =        26.0880  VDWAALS    =      1476.9813
 EELEC  =      5214.1661  EHBOND  =         0.0000  RESTRAINT  =        13.6384
 EAMBER (non-restraint)  =      3908.4699
 ------------------------------------------------------------------------------
