-------------------------------------------------------
          Amber 24 PMEMD                              2024
          -------------------------------------------------------

  [-O]verwriting output

File Assignments:

 Here is the input file:

&cntrl
imin=0, irest=1, ntx=5, 		!For files 2-4: irest=1, ntx=5.
nstlim=10000, dt=0.001, 		!Number of time steps and size (ps).
ntc=2, ntf=2, ig=-1,
ntt=3, gamma_ln=2.0,
tempi=250.0, temp0=310.0, 		!Initial and final temperatures.
ntxo=2, ioutfm=1,
ntpr=100, ntwx=100,
ntb=1,
cut=9.0,
ntr=1, restraint_wt=5.0, restraintmask='@CA,N,C',
/

Note: ig = -1. Setting random seed to   893692 based on wallclock time in
      microseconds.

--------------------------------------------------------------------------------
   1.  RESOURCE   USE:
--------------------------------------------------------------------------------

 getting box info from netcdf restart file
 NATOM  =  101202 NTYPES =      11 NBONH =   98658 MBONA  =    2544
 NTHETH =    5904 MTHETA =    3408 NPHIH =   11760 MPHIA  =   10368
 NHPARM =       0 NPARM  =       0 NNB   =  155656 NRES   =   32422
 NBONA  =    2544 NTHETA =    3408 NPHIA =   10368 NUMBND =      27
 NUMANG =      54 NPTRA  =      59 NATYP =      16 NPHB   =       0
 IFBOX  =       2 NMXRS  =      21 IFCAP =       0 NEXTRA =       0
 NCOPY  =       0

     BOX TYPE: TRUNCATED OCTAHEDRON

--------------------------------------------------------------------------------
   2.  CONTROL  DATA  FOR  THE  RUN
--------------------------------------------------------------------------------

default_name

General flags:
     imin    =       0, nmropt  =       0

Nature and format of input:
     ntx     =       5, irest   =       1, ntrx    =       1

Nature and format of output:
     ntxo    =       2, ntpr    =     100, ntrx    =       1, ntwr    =   10000
     iwrap   =       0, ntwx    =     100, ntwv    =       0, ntwe    =       0
     ioutfm  =       1, ntwprt  =       0, idecomp =       0, rbornstat=      0

Potential function:
     ntf     =       2, ntb     =       1, igb     =       0, nsnb    =      25
     ipol    =       0, gbsa    =       0, iesp    =       0
     dielc   =   1.00000, cut     =   9.00000, intdiel =   1.00000

Frozen or restrained atoms:
     ibelly  =       0, ntr     =       1
     restraint_wt =   5.00000

Molecular dynamics:
     nstlim  =     10000, nscm    =         0, nrespa  =         1
     t       =   0.00000, dt      =   0.00100, vlimit  =  -1.00000

Langevin dynamics temperature regulation:
     ig      =  893692
     temp0   = 310.00000, tempi   = 250.00000, gamma_ln=   2.00000

SHAKE:
     ntc     =       2, jfastw  =       0
     tol     =   0.00001

Ewald parameters:
     verbose =       0, ew_type =       0, nbflag  =       1, use_pme =       1
     vdwmeth =       1, eedmeth =       1, netfrc  =       1
     Box X =  114.902   Box Y =  114.902   Box Z =  114.902
     Alpha =  109.471   Beta  =  109.471   Gamma =  109.471
     NFFT1 =  120       NFFT2 =  120       NFFT3 =  120
     Cutoff=    9.000   Tol   =0.100E-04
     Ewald Coefficient =  0.30768
     Interpolation order =    4

    LOADING THE CONSTRAINED ATOMS AS GROUPS

   5.  REFERENCE ATOM COORDINATES

  default_name
     Mask @CA,N,C; matches  1152 atoms

--------------------------------------------------------------------------------
   3.  ATOMIC COORDINATES AND VELOCITIES
--------------------------------------------------------------------------------

default_name
 begin time read from input coords =    30.000 ps

 Number of triangulated 3-point waters found:    31990

     Sum of charges from parm topology file =  -0.00000047
     Forcing neutrality...

--------------------------------------------------------------------------------
   4.  RESULTS
 NSTEP =      100   TIME(PS) =      30.100  TEMP(K) =   259.56  PRESS =     0.0
 Etot   =   -268108.0480  EKtot   =     52854.9961  EPtot      =   -320963.0441
 BOND   =      1959.2846  ANGLE   =      2111.8450  DIHED      =      1443.0390
 UB     =         0.0000  IMP     =         0.0000  CMAP       =       339.0808
 1-4 NB =      1139.7538  1-4 EEL =     15100.2424  VDWAALS    =     48077.5285
 EELEC  =   -391328.5770  EHBOND  =         0.0000  RESTRAINT  =       194.7589
 EAMBER (non-restraint)  =   -321157.8029
 ------------------------------------------------------------------------------

      A V E R A G E S   O V E R     100 S T E P S

 NSTEP =    10000   TIME(PS) =      40.000  TEMP(K) =   305.68  PRESS =     0.0
 Etot   =   -237037.0144  EKtot   =     62246.5192  EPtot      =   -299283.5336
 BOND   =      2049.6015  ANGLE   =      2380.9863  DIHED      =      1541.5257
 UB     =         0.0000  IMP     =         0.0000  CMAP       =       337.7850
 1-4 NB =      1183.1311  1-4 EEL =     15208.7667  VDWAALS    =     40609.4156
 EELEC  =   -362877.7028  EHBOND  =         0.0000  RESTRAINT  =       282.9574
 EAMBER (non-restraint)  =   -299566.4910
 ------------------------------------------------------------------------------

      R M S  F L U C T U A T I O N S

 NSTEP =    10000   TIME(PS) =      40.000  TEMP(K) =     9.62  PRESS =     0.0
 Etot   =      7058.3821  EKtot   =      1959.6050  EPtot      =      5116.4237
 BOND   =        35.1437  ANGLE   =        61.9137  DIHED      =        26.7483
 UB     =         0.0000  IMP     =         0.0000  CMAP       =         8.1095
 1-4 NB =        15.6935  1-4 EEL =        36.1989  VDWAALS    =      1910.5536
 EELEC  =      6908.0560  EHBOND  =         0.0000  RESTRAINT  =        19.3946
 EAMBER (non-restraint)  =      5097.0291
 ------------------------------------------------------------------------------
