-------------------------------------------------------
          Amber 24 PMEMD                              2024
          -------------------------------------------------------

  [-O]verwriting output

File Assignments:

 Here is the input file:

!Stage equilibration 5ns
&cntrl
imin=0, irest=1, ntx=5,
nstlim=2500000, dt=0.002,
ntc=2, ntf=2, ig=-1,
ntt=3, gamma_ln=2.0,
tempi=310.0, temp0=310.0,
ntxo=2, ioutfm=1,
ntpr=20000, ntwx=20000,
ntb=1,
cut=9.0,
iwrap=1,
/

Note: ig = -1. Setting random seed to   545630 based on wallclock time in
      microseconds.

--------------------------------------------------------------------------------
   1.  RESOURCE   USE:
--------------------------------------------------------------------------------

 getting box info from netcdf restart file
 NATOM  =   50023 NTYPES =      12 NBONH =   47691 MBONA  =    2332
 NTHETH =    5236 MTHETA =    3080 NPHIH =   10252 MPHIA  =    9504
 NHPARM =       0 NPARM  =       0 NNB   =   84972 NRES   =   15501
 NBONA  =    2332 NTHETA =    3080 NPHIA =    9504 NUMBND =      29
 NUMANG =      57 NPTRA  =      64 NATYP =      17 NPHB   =       0
 IFBOX  =       2 NMXRS  =      21 IFCAP =       0 NEXTRA =       0
 NCOPY  =       0

     BOX TYPE: TRUNCATED OCTAHEDRON

--------------------------------------------------------------------------------
   2.  CONTROL  DATA  FOR  THE  RUN
--------------------------------------------------------------------------------

default_name

General flags:
     imin    =       0, nmropt  =       0

Nature and format of input:
     ntx     =       5, irest   =       1, ntrx    =       1

Nature and format of output:
     ntxo    =       2, ntpr    =   20000, ntrx    =       1, ntwr    = 2500000
     iwrap   =       1, ntwx    =   20000, ntwv    =       0, ntwe    =       0
     ioutfm  =       1, ntwprt  =       0, idecomp =       0, rbornstat=      0

Potential function:
     ntf     =       2, ntb     =       1, igb     =       0, nsnb    =      25
     ipol    =       0, gbsa    =       0, iesp    =       0
     dielc   =   1.00000, cut     =   9.00000, intdiel =   1.00000

Frozen or restrained atoms:
     ibelly  =       0, ntr     =       0

Molecular dynamics:
     nstlim  =   2500000, nscm    =      1000, nrespa  =         1
     t       =   0.00000, dt      =   0.00200, vlimit  =  -1.00000

Langevin dynamics temperature regulation:
     ig      =  545630
     temp0   = 310.00000, tempi   = 310.00000, gamma_ln=   2.00000

SHAKE:
     ntc     =       2, jfastw  =       0
     tol     =   0.00001

Ewald parameters:
     verbose =       0, ew_type =       0, nbflag  =       1, use_pme =       1
     vdwmeth =       1, eedmeth =       1, netfrc  =       1
     Box X =   89.935   Box Y =   89.935   Box Z =   89.935
     Alpha =  109.471   Beta  =  109.471   Gamma =  109.471
     NFFT1 =   96       NFFT2 =   96       NFFT3 =   96
     Cutoff=    9.000   Tol   =0.100E-04
     Ewald Coefficient =  0.30768
     Interpolation order =    4

--------------------------------------------------------------------------------
   3.  ATOMIC COORDINATES AND VELOCITIES
--------------------------------------------------------------------------------

default_name
 begin time read from input coords =440039.998 ps

 Number of triangulated 3-point waters found:    15105

     Sum of charges from parm topology file =  -0.00000043
     Forcing neutrality...

--------------------------------------------------------------------------------
   4.  RESULTS
 NSTEP =    20000   TIME(PS) =  440079.998  TEMP(K) =   309.81  PRESS =     0.0
 Etot   =   -113740.7130  EKtot   =     31514.5781  EPtot      =   -145255.2911
 BOND   =       892.0308  ANGLE   =      2154.7925  DIHED      =      1353.2118
 UB     =         0.0000  IMP     =         0.0000  CMAP       =       180.7233
 1-4 NB =      1011.7073  1-4 EEL =     15065.3764  VDWAALS    =     17157.5669
 EELEC  =   -183070.7001  EHBOND  =         0.0000  RESTRAINT  =         0.0000
 ------------------------------------------------------------------------------

      A V E R A G E S   O V E R     125 S T E P S

 NSTEP =  2500000   TIME(PS) =  445039.998  TEMP(K) =   309.72  PRESS =     0.0
 Etot   =   -113742.5902  EKtot   =     31505.6749  EPtot      =   -145248.2652
 BOND   =       857.4058  ANGLE   =      2150.5096  DIHED      =      1358.4259
 UB     =         0.0000  IMP     =         0.0000  CMAP       =       193.6818
 1-4 NB =       997.2566  1-4 EEL =     15069.6819  VDWAALS    =     17338.1162
 EELEC  =   -183213.3428  EHBOND  =         0.0000  RESTRAINT  =         0.0000
 ------------------------------------------------------------------------------

      R M S  F L U C T U A T I O N S

 NSTEP =  2500000   TIME(PS) =  445039.998  TEMP(K) =     1.38  PRESS =     0.0
 Etot   =       233.8707  EKtot   =       140.4069  EPtot      =       214.2302
 BOND   =        23.7115  ANGLE   =        36.9717  DIHED      =        20.3076
 UB     =         0.0000  IMP     =         0.0000  CMAP       =        11.3263
 1-4 NB =        12.5840  1-4 EEL =        51.0331  VDWAALS    =       173.4688
 EELEC  =       291.2184  EHBOND  =         0.0000  RESTRAINT  =         0.0000
 ------------------------------------------------------------------------------
