-------------------------------------------------------
          Amber 24 PMEMD                              2024
          -------------------------------------------------------

  [-O]verwriting output

File Assignments:

 Here is the input file:

!Stage equilibration 5ns
&cntrl
imin=0, irest=1, ntx=5,
nstlim=2500000, dt=0.002,
ntc=2, ntf=2, ig=-1,
ntt=3, gamma_ln=2.0,
tempi=310.0, temp0=310.0,
ntxo=2, ioutfm=1,
ntpr=20000, ntwx=20000,
ntb=1,
cut=9.0,
iwrap=1,
/

Note: ig = -1. Setting random seed to   324377 based on wallclock time in
      microseconds.

--------------------------------------------------------------------------------
   1.  RESOURCE   USE:
--------------------------------------------------------------------------------

 getting box info from netcdf restart file
 NATOM  =   50023 NTYPES =      12 NBONH =   47691 MBONA  =    2332
 NTHETH =    5236 MTHETA =    3080 NPHIH =   10252 MPHIA  =    9504
 NHPARM =       0 NPARM  =       0 NNB   =   84972 NRES   =   15501
 NBONA  =    2332 NTHETA =    3080 NPHIA =    9504 NUMBND =      29
 NUMANG =      57 NPTRA  =      64 NATYP =      17 NPHB   =       0
 IFBOX  =       2 NMXRS  =      21 IFCAP =       0 NEXTRA =       0
 NCOPY  =       0

     BOX TYPE: TRUNCATED OCTAHEDRON

--------------------------------------------------------------------------------
   2.  CONTROL  DATA  FOR  THE  RUN
--------------------------------------------------------------------------------

default_name

General flags:
     imin    =       0, nmropt  =       0

Nature and format of input:
     ntx     =       5, irest   =       1, ntrx    =       1

Nature and format of output:
     ntxo    =       2, ntpr    =   20000, ntrx    =       1, ntwr    = 2500000
     iwrap   =       1, ntwx    =   20000, ntwv    =       0, ntwe    =       0
     ioutfm  =       1, ntwprt  =       0, idecomp =       0, rbornstat=      0

Potential function:
     ntf     =       2, ntb     =       1, igb     =       0, nsnb    =      25
     ipol    =       0, gbsa    =       0, iesp    =       0
     dielc   =   1.00000, cut     =   9.00000, intdiel =   1.00000

Frozen or restrained atoms:
     ibelly  =       0, ntr     =       0

Molecular dynamics:
     nstlim  =   2500000, nscm    =      1000, nrespa  =         1
     t       =   0.00000, dt      =   0.00200, vlimit  =  -1.00000

Langevin dynamics temperature regulation:
     ig      =  324377
     temp0   = 310.00000, tempi   = 310.00000, gamma_ln=   2.00000

SHAKE:
     ntc     =       2, jfastw  =       0
     tol     =   0.00001

Ewald parameters:
     verbose =       0, ew_type =       0, nbflag  =       1, use_pme =       1
     vdwmeth =       1, eedmeth =       1, netfrc  =       1
     Box X =   89.935   Box Y =   89.935   Box Z =   89.935
     Alpha =  109.471   Beta  =  109.471   Gamma =  109.471
     NFFT1 =   96       NFFT2 =   96       NFFT3 =   96
     Cutoff=    9.000   Tol   =0.100E-04
     Ewald Coefficient =  0.30768
     Interpolation order =    4

--------------------------------------------------------------------------------
   3.  ATOMIC COORDINATES AND VELOCITIES
--------------------------------------------------------------------------------

default_name
 begin time read from input coords =350039.999 ps

 Number of triangulated 3-point waters found:    15105

     Sum of charges from parm topology file =  -0.00000043
     Forcing neutrality...

--------------------------------------------------------------------------------
   4.  RESULTS
 NSTEP =    20000   TIME(PS) =  350079.999  TEMP(K) =   310.96  PRESS =     0.0
 Etot   =   -113616.4328  EKtot   =     31631.6348  EPtot      =   -145248.0675
 BOND   =       913.0130  ANGLE   =      2160.3428  DIHED      =      1365.8417
 UB     =         0.0000  IMP     =         0.0000  CMAP       =       229.8749
 1-4 NB =       989.2678  1-4 EEL =     15074.8632  VDWAALS    =     17110.0801
 EELEC  =   -183091.3510  EHBOND  =         0.0000  RESTRAINT  =         0.0000
 ------------------------------------------------------------------------------

      A V E R A G E S   O V E R     125 S T E P S

 NSTEP =  2500000   TIME(PS) =  355039.999  TEMP(K) =   309.94  PRESS =     0.0
 Etot   =   -113652.7466  EKtot   =     31527.4193  EPtot      =   -145180.1659
 BOND   =       858.3625  ANGLE   =      2145.3807  DIHED      =      1352.6416
 UB     =         0.0000  IMP     =         0.0000  CMAP       =       218.5997
 1-4 NB =       999.5134  1-4 EEL =     15113.2964  VDWAALS    =     17275.3583
 EELEC  =   -183143.3185  EHBOND  =         0.0000  RESTRAINT  =         0.0000
 ------------------------------------------------------------------------------

      R M S  F L U C T U A T I O N S

 NSTEP =  2500000   TIME(PS) =  355039.999  TEMP(K) =     1.46  PRESS =     0.0
 Etot   =       250.8289  EKtot   =       148.4078  EPtot      =       196.5749
 BOND   =        24.9821  ANGLE   =        40.6730  DIHED      =        20.0352
 UB     =         0.0000  IMP     =         0.0000  CMAP       =         9.9538
 1-4 NB =        12.3219  1-4 EEL =        48.8157  VDWAALS    =       199.9968
 EELEC  =       330.8210  EHBOND  =         0.0000  RESTRAINT  =         0.0000
 ------------------------------------------------------------------------------
