-------------------------------------------------------
          Amber 24 PMEMD                              2024
          -------------------------------------------------------

  [-O]verwriting output

File Assignments:

 Here is the input file:

&cntrl
imin=0, irest=1, ntx=5, 		!For files 2-4: irest=1, ntx=5.
nstlim=10000, dt=0.001, 		!Number of time steps and size (ps).
ntc=2, ntf=2, ig=-1,
ntt=3, gamma_ln=2.0,
tempi=200.0, temp0=250.0, 		!Initial and final temperatures.
ntxo=2, ioutfm=1,
ntpr=100, ntwx=100,
ntb=1,
cut=9.0,
ntr=1, restraint_wt=5.0, restraintmask='@CA,N,C',
/

Note: ig = -1. Setting random seed to   602681 based on wallclock time in
      microseconds.

--------------------------------------------------------------------------------
   1.  RESOURCE   USE:
--------------------------------------------------------------------------------

 getting box info from netcdf restart file
 NATOM  =   50023 NTYPES =      12 NBONH =   47691 MBONA  =    2332
 NTHETH =    5236 MTHETA =    3080 NPHIH =   10252 MPHIA  =    9504
 NHPARM =       0 NPARM  =       0 NNB   =   84972 NRES   =   15501
 NBONA  =    2332 NTHETA =    3080 NPHIA =    9504 NUMBND =      29
 NUMANG =      57 NPTRA  =      64 NATYP =      17 NPHB   =       0
 IFBOX  =       2 NMXRS  =      21 IFCAP =       0 NEXTRA =       0
 NCOPY  =       0

     BOX TYPE: TRUNCATED OCTAHEDRON

--------------------------------------------------------------------------------
   2.  CONTROL  DATA  FOR  THE  RUN
--------------------------------------------------------------------------------

default_name

General flags:
     imin    =       0, nmropt  =       0

Nature and format of input:
     ntx     =       5, irest   =       1, ntrx    =       1

Nature and format of output:
     ntxo    =       2, ntpr    =     100, ntrx    =       1, ntwr    =   10000
     iwrap   =       0, ntwx    =     100, ntwv    =       0, ntwe    =       0
     ioutfm  =       1, ntwprt  =       0, idecomp =       0, rbornstat=      0

Potential function:
     ntf     =       2, ntb     =       1, igb     =       0, nsnb    =      25
     ipol    =       0, gbsa    =       0, iesp    =       0
     dielc   =   1.00000, cut     =   9.00000, intdiel =   1.00000

Frozen or restrained atoms:
     ibelly  =       0, ntr     =       1
     restraint_wt =   5.00000

Molecular dynamics:
     nstlim  =     10000, nscm    =         0, nrespa  =         1
     t       =   0.00000, dt      =   0.00100, vlimit  =  -1.00000

Langevin dynamics temperature regulation:
     ig      =  602681
     temp0   = 250.00000, tempi   = 200.00000, gamma_ln=   2.00000

SHAKE:
     ntc     =       2, jfastw  =       0
     tol     =   0.00001

Ewald parameters:
     verbose =       0, ew_type =       0, nbflag  =       1, use_pme =       1
     vdwmeth =       1, eedmeth =       1, netfrc  =       1
     Box X =   89.935   Box Y =   89.935   Box Z =   89.935
     Alpha =  109.471   Beta  =  109.471   Gamma =  109.471
     NFFT1 =   96       NFFT2 =   96       NFFT3 =   96
     Cutoff=    9.000   Tol   =0.100E-04
     Ewald Coefficient =  0.30768
     Interpolation order =    4

    LOADING THE CONSTRAINED ATOMS AS GROUPS

   5.  REFERENCE ATOM COORDINATES

  default_name
     Mask @CA,N,C; matches  1056 atoms

--------------------------------------------------------------------------------
   3.  ATOMIC COORDINATES AND VELOCITIES
--------------------------------------------------------------------------------

default_name
 begin time read from input coords =    20.000 ps

 Number of triangulated 3-point waters found:    15105

     Sum of charges from parm topology file =  -0.00000043
     Forcing neutrality...

--------------------------------------------------------------------------------
   4.  RESULTS
 NSTEP =      100   TIME(PS) =      20.100  TEMP(K) =   208.34  PRESS =     0.0
 Etot   =   -144943.1235  EKtot   =     21192.5469  EPtot      =   -166135.6703
 BOND   =       611.7307  ANGLE   =      1553.4287  DIHED      =      1259.0444
 UB     =         0.0000  IMP     =         0.0000  CMAP       =       234.1341
 1-4 NB =       975.6082  1-4 EEL =     15054.3011  VDWAALS    =     25096.0873
 EELEC  =   -211069.7852  EHBOND  =         0.0000  RESTRAINT  =       149.7803
 EAMBER (non-restraint)  =   -166285.4507
 ------------------------------------------------------------------------------

      A V E R A G E S   O V E R     100 S T E P S

 NSTEP =    10000   TIME(PS) =      30.000  TEMP(K) =   246.56  PRESS =     0.0
 Etot   =   -132392.5477  EKtot   =     25081.0350  EPtot      =   -157473.5827
 BOND   =       698.7433  ANGLE   =      1764.0075  DIHED      =      1323.2839
 UB     =         0.0000  IMP     =         0.0000  CMAP       =       235.1248
 1-4 NB =       974.4090  1-4 EEL =     15030.0557  VDWAALS    =     21789.3705
 EELEC  =   -199487.6622  EHBOND  =         0.0000  RESTRAINT  =       199.0848
 EAMBER (non-restraint)  =   -157672.6675
 ------------------------------------------------------------------------------

      R M S  F L U C T U A T I O N S

 NSTEP =    10000   TIME(PS) =      30.000  TEMP(K) =     7.40  PRESS =     0.0
 Etot   =      2951.8883  EKtot   =       752.3868  EPtot      =      2234.0504
 BOND   =        25.9253  ANGLE   =        49.2629  DIHED      =        18.7263
 UB     =         0.0000  IMP     =         0.0000  CMAP       =         5.9181
 1-4 NB =        11.4111  1-4 EEL =        29.7094  VDWAALS    =      1075.7834
 EELEC  =      3225.0072  EHBOND  =         0.0000  RESTRAINT  =        11.6586
 EAMBER (non-restraint)  =      2222.3918
 ------------------------------------------------------------------------------
