-------------------------------------------------------
          Amber 24 PMEMD                              2024
          -------------------------------------------------------

  [-O]verwriting output

File Assignments:

 Here is the input file:

&cntrl
imin=0, irest=1, ntx=5, 		!For files 2-4: irest=1, ntx=5.
nstlim=10000, dt=0.001, 		!Number of time steps and size (ps).
ntc=2, ntf=2, ig=-1,
ntt=3, gamma_ln=2.0,
tempi=200.0, temp0=250.0, 		!Initial and final temperatures.
ntxo=2, ioutfm=1,
ntpr=100, ntwx=100,
ntb=1,
cut=9.0,
ntr=1, restraint_wt=5.0, restraintmask='@CA,N,C',
/

Note: ig = -1. Setting random seed to   779991 based on wallclock time in
      microseconds.

--------------------------------------------------------------------------------
   1.  RESOURCE   USE:
--------------------------------------------------------------------------------

 getting box info from netcdf restart file
 NATOM  =   50023 NTYPES =      12 NBONH =   47691 MBONA  =    2332
 NTHETH =    5236 MTHETA =    3080 NPHIH =   10252 MPHIA  =    9504
 NHPARM =       0 NPARM  =       0 NNB   =   84972 NRES   =   15501
 NBONA  =    2332 NTHETA =    3080 NPHIA =    9504 NUMBND =      29
 NUMANG =      57 NPTRA  =      64 NATYP =      17 NPHB   =       0
 IFBOX  =       2 NMXRS  =      21 IFCAP =       0 NEXTRA =       0
 NCOPY  =       0

     BOX TYPE: TRUNCATED OCTAHEDRON

--------------------------------------------------------------------------------
   2.  CONTROL  DATA  FOR  THE  RUN
--------------------------------------------------------------------------------

default_name

General flags:
     imin    =       0, nmropt  =       0

Nature and format of input:
     ntx     =       5, irest   =       1, ntrx    =       1

Nature and format of output:
     ntxo    =       2, ntpr    =     100, ntrx    =       1, ntwr    =   10000
     iwrap   =       0, ntwx    =     100, ntwv    =       0, ntwe    =       0
     ioutfm  =       1, ntwprt  =       0, idecomp =       0, rbornstat=      0

Potential function:
     ntf     =       2, ntb     =       1, igb     =       0, nsnb    =      25
     ipol    =       0, gbsa    =       0, iesp    =       0
     dielc   =   1.00000, cut     =   9.00000, intdiel =   1.00000

Frozen or restrained atoms:
     ibelly  =       0, ntr     =       1
     restraint_wt =   5.00000

Molecular dynamics:
     nstlim  =     10000, nscm    =         0, nrespa  =         1
     t       =   0.00000, dt      =   0.00100, vlimit  =  -1.00000

Langevin dynamics temperature regulation:
     ig      =  779991
     temp0   = 250.00000, tempi   = 200.00000, gamma_ln=   2.00000

SHAKE:
     ntc     =       2, jfastw  =       0
     tol     =   0.00001

Ewald parameters:
     verbose =       0, ew_type =       0, nbflag  =       1, use_pme =       1
     vdwmeth =       1, eedmeth =       1, netfrc  =       1
     Box X =   89.935   Box Y =   89.935   Box Z =   89.935
     Alpha =  109.471   Beta  =  109.471   Gamma =  109.471
     NFFT1 =   96       NFFT2 =   96       NFFT3 =   96
     Cutoff=    9.000   Tol   =0.100E-04
     Ewald Coefficient =  0.30768
     Interpolation order =    4

    LOADING THE CONSTRAINED ATOMS AS GROUPS

   5.  REFERENCE ATOM COORDINATES

  default_name
     Mask @CA,N,C; matches  1056 atoms

--------------------------------------------------------------------------------
   3.  ATOMIC COORDINATES AND VELOCITIES
--------------------------------------------------------------------------------

default_name
 begin time read from input coords =    20.000 ps

 Number of triangulated 3-point waters found:    15105

     Sum of charges from parm topology file =  -0.00000043
     Forcing neutrality...

--------------------------------------------------------------------------------
   4.  RESULTS
 NSTEP =      100   TIME(PS) =      20.100  TEMP(K) =   207.92  PRESS =     0.0
 Etot   =   -145284.4655  EKtot   =     21150.5117  EPtot      =   -166434.9772
 BOND   =       630.5760  ANGLE   =      1499.0640  DIHED      =      1262.1624
 UB     =         0.0000  IMP     =         0.0000  CMAP       =       233.8033
 1-4 NB =       946.2251  1-4 EEL =     14993.5281  VDWAALS    =     24827.0994
 EELEC  =   -210971.6780  EHBOND  =         0.0000  RESTRAINT  =       144.2425
 EAMBER (non-restraint)  =   -166579.2197
 ------------------------------------------------------------------------------

      A V E R A G E S   O V E R     100 S T E P S

 NSTEP =    10000   TIME(PS) =      30.000  TEMP(K) =   246.11  PRESS =     0.0
 Etot   =   -132639.3047  EKtot   =     25035.1723  EPtot      =   -157674.4770
 BOND   =       691.9457  ANGLE   =      1764.4710  DIHED      =      1319.1597
 UB     =         0.0000  IMP     =         0.0000  CMAP       =       243.0450
 1-4 NB =       970.8379  1-4 EEL =     15042.6625  VDWAALS    =     21924.5577
 EELEC  =   -199830.7953  EHBOND  =         0.0000  RESTRAINT  =       199.6388
 EAMBER (non-restraint)  =   -157874.1158
 ------------------------------------------------------------------------------

      R M S  F L U C T U A T I O N S

 NSTEP =    10000   TIME(PS) =      30.000  TEMP(K) =     7.24  PRESS =     0.0
 Etot   =      2934.2000  EKtot   =       736.0770  EPtot      =      2232.3820
 BOND   =        21.2843  ANGLE   =        50.9468  DIHED      =        17.8611
 UB     =         0.0000  IMP     =         0.0000  CMAP       =         6.0491
 1-4 NB =        11.2237  1-4 EEL =        26.9611  VDWAALS    =       965.6357
 EELEC  =      3114.4652  EHBOND  =         0.0000  RESTRAINT  =        12.3867
 EAMBER (non-restraint)  =      2219.9953
 ------------------------------------------------------------------------------
