-------------------------------------------------------
          Amber 24 PMEMD                              2024
          -------------------------------------------------------

  [-O]verwriting output

File Assignments:

 Here is the input file:

&cntrl
imin=0, irest=0, ntx=1, 		! For files 2-4: irest=1, ntx=5.
nstlim=10000, dt=0.001, 		! Number of time steps and size (ps).
ntc=2, ntf=2, ig=-1,
ntt=3, gamma_ln=2.0,
tempi=0.0, temp0=100.0, 		! Initial and final temperatures.
ntxo=2, ioutfm=1,
ntpr=100, ntwx=100, ntwr=1000
ntb=1,
cut=9.0,
ntr=1, restraint_wt=5.0, restraintmask='@CA,N,C',
/

Note: ig = -1. Setting random seed to   489499 based on wallclock time in
      microseconds.

--------------------------------------------------------------------------------
   1.  RESOURCE   USE:
--------------------------------------------------------------------------------

 getting box info from netcdf restart file
 NATOM  =   50023 NTYPES =      12 NBONH =   47691 MBONA  =    2332
 NTHETH =    5236 MTHETA =    3080 NPHIH =   10252 MPHIA  =    9504
 NHPARM =       0 NPARM  =       0 NNB   =   84972 NRES   =   15501
 NBONA  =    2332 NTHETA =    3080 NPHIA =    9504 NUMBND =      29
 NUMANG =      57 NPTRA  =      64 NATYP =      17 NPHB   =       0
 IFBOX  =       2 NMXRS  =      21 IFCAP =       0 NEXTRA =       0
 NCOPY  =       0

     BOX TYPE: TRUNCATED OCTAHEDRON

--------------------------------------------------------------------------------
   2.  CONTROL  DATA  FOR  THE  RUN
--------------------------------------------------------------------------------

default_name

General flags:
     imin    =       0, nmropt  =       0

Nature and format of input:
     ntx     =       1, irest   =       0, ntrx    =       1

Nature and format of output:
     ntxo    =       2, ntpr    =     100, ntrx    =       1, ntwr    =    1000
     iwrap   =       0, ntwx    =     100, ntwv    =       0, ntwe    =       0
     ioutfm  =       1, ntwprt  =       0, idecomp =       0, rbornstat=      0

Potential function:
     ntf     =       2, ntb     =       1, igb     =       0, nsnb    =      25
     ipol    =       0, gbsa    =       0, iesp    =       0
     dielc   =   1.00000, cut     =   9.00000, intdiel =   1.00000

Frozen or restrained atoms:
     ibelly  =       0, ntr     =       1
     restraint_wt =   5.00000

Molecular dynamics:
     nstlim  =     10000, nscm    =         0, nrespa  =         1
     t       =   0.00000, dt      =   0.00100, vlimit  =  -1.00000

Langevin dynamics temperature regulation:
     ig      =  489499
     temp0   = 100.00000, tempi   =   0.00000, gamma_ln=   2.00000

SHAKE:
     ntc     =       2, jfastw  =       0
     tol     =   0.00001

Ewald parameters:
     verbose =       0, ew_type =       0, nbflag  =       1, use_pme =       1
     vdwmeth =       1, eedmeth =       1, netfrc  =       1
     Box X =   89.935   Box Y =   89.935   Box Z =   89.935
     Alpha =  109.471   Beta  =  109.471   Gamma =  109.471
     NFFT1 =   96       NFFT2 =   96       NFFT3 =   96
     Cutoff=    9.000   Tol   =0.100E-04
     Ewald Coefficient =  0.30768
     Interpolation order =    4

    LOADING THE CONSTRAINED ATOMS AS GROUPS

   5.  REFERENCE ATOM COORDINATES

  default_name
     Mask @CA,N,C; matches  1056 atoms

--------------------------------------------------------------------------------
   3.  ATOMIC COORDINATES AND VELOCITIES
--------------------------------------------------------------------------------

default_name
 begin time read from input coords =     0.000 ps

 Number of triangulated 3-point waters found:    15105

     Sum of charges from parm topology file =  -0.00000043
     Forcing neutrality...

--------------------------------------------------------------------------------
   4.  RESULTS
 NSTEP =        0   TIME(PS) =       0.000  TEMP(K) =     0.00  PRESS =     0.0
 Etot   =   -214630.5783  EKtot   =         0.0000  EPtot      =   -214630.5783
 BOND   =       118.1356  ANGLE   =       365.8404  DIHED      =       955.5196
 UB     =         0.0000  IMP     =         0.0000  CMAP       =       226.7736
 1-4 NB =       875.2409  1-4 EEL =     15011.9894  VDWAALS    =     37271.6812
 EELEC  =   -269455.7590  EHBOND  =         0.0000  RESTRAINT  =         0.0000
 ------------------------------------------------------------------------------

      A V E R A G E S   O V E R     100 S T E P S

 NSTEP =    10000   TIME(PS) =      10.000  TEMP(K) =    96.90  PRESS =     0.0
 Etot   =   -168318.1462  EKtot   =      9857.1592  EPtot      =   -178175.3054
 BOND   =       340.3099  ANGLE   =       902.7167  DIHED      =      1094.9734
 UB     =         0.0000  IMP     =         0.0000  CMAP       =       233.1836
 1-4 NB =       913.1918  1-4 EEL =     15034.7235  VDWAALS    =     28248.0298
 EELEC  =   -225021.5711  EHBOND  =         0.0000  RESTRAINT  =        79.1370
 EAMBER (non-restraint)  =   -178254.4424
 ------------------------------------------------------------------------------

      R M S  F L U C T U A T I O N S

 NSTEP =    10000   TIME(PS) =      10.000  TEMP(K) =    12.73  PRESS =     0.0
 Etot   =      2052.2949  EKtot   =      1295.2801  EPtot      =      1119.4760
 BOND   =        33.4065  ANGLE   =        78.0492  DIHED      =        20.3447
 UB     =         0.0000  IMP     =         0.0000  CMAP       =         3.7680
 1-4 NB =         8.2431  1-4 EEL =        21.5867  VDWAALS    =       476.4614
 EELEC  =      1510.8256  EHBOND  =         0.0000  RESTRAINT  =        13.4289
 EAMBER (non-restraint)  =      1106.0471
 ------------------------------------------------------------------------------
