-------------------------------------------------------
          Amber 24 PMEMD                              2024
          -------------------------------------------------------

  [-O]verwriting output

File Assignments:

 Here is the input file:

&cntrl
 imin=0, irest=1, ntx=5, 		!For files 2-4: irest=1, ntx=5.
nstlim=10000, dt=0.001, 		!Number of time steps and size (ps).
ntc=2, ntf=2, ig=-1,
ntt=3, gamma_ln=2.0,
tempi=100.0, temp0=200.0, 		!Initial and final temperatures.
ntxo=2, ioutfm=1,
ntpr=100, ntwx=100,
ntb=1,
cut=9.0,
ntr=1, restraint_wt=5.0, restraintmask='@CA,N,C',
/

Note: ig = -1. Setting random seed to   718755 based on wallclock time in
      microseconds.

--------------------------------------------------------------------------------
   1.  RESOURCE   USE:
--------------------------------------------------------------------------------

 getting box info from netcdf restart file
 NATOM  =   50023 NTYPES =      12 NBONH =   47691 MBONA  =    2332
 NTHETH =    5236 MTHETA =    3080 NPHIH =   10252 MPHIA  =    9504
 NHPARM =       0 NPARM  =       0 NNB   =   84972 NRES   =   15501
 NBONA  =    2332 NTHETA =    3080 NPHIA =    9504 NUMBND =      29
 NUMANG =      57 NPTRA  =      64 NATYP =      17 NPHB   =       0
 IFBOX  =       2 NMXRS  =      21 IFCAP =       0 NEXTRA =       0
 NCOPY  =       0

     BOX TYPE: TRUNCATED OCTAHEDRON

--------------------------------------------------------------------------------
   2.  CONTROL  DATA  FOR  THE  RUN
--------------------------------------------------------------------------------

default_name

General flags:
     imin    =       0, nmropt  =       0

Nature and format of input:
     ntx     =       5, irest   =       1, ntrx    =       1

Nature and format of output:
     ntxo    =       2, ntpr    =     100, ntrx    =       1, ntwr    =   10000
     iwrap   =       0, ntwx    =     100, ntwv    =       0, ntwe    =       0
     ioutfm  =       1, ntwprt  =       0, idecomp =       0, rbornstat=      0

Potential function:
     ntf     =       2, ntb     =       1, igb     =       0, nsnb    =      25
     ipol    =       0, gbsa    =       0, iesp    =       0
     dielc   =   1.00000, cut     =   9.00000, intdiel =   1.00000

Frozen or restrained atoms:
     ibelly  =       0, ntr     =       1
     restraint_wt =   5.00000

Molecular dynamics:
     nstlim  =     10000, nscm    =         0, nrespa  =         1
     t       =   0.00000, dt      =   0.00100, vlimit  =  -1.00000

Langevin dynamics temperature regulation:
     ig      =  718755
     temp0   = 200.00000, tempi   = 100.00000, gamma_ln=   2.00000

SHAKE:
     ntc     =       2, jfastw  =       0
     tol     =   0.00001

Ewald parameters:
     verbose =       0, ew_type =       0, nbflag  =       1, use_pme =       1
     vdwmeth =       1, eedmeth =       1, netfrc  =       1
     Box X =   89.935   Box Y =   89.935   Box Z =   89.935
     Alpha =  109.471   Beta  =  109.471   Gamma =  109.471
     NFFT1 =   96       NFFT2 =   96       NFFT3 =   96
     Cutoff=    9.000   Tol   =0.100E-04
     Ewald Coefficient =  0.30768
     Interpolation order =    4

    LOADING THE CONSTRAINED ATOMS AS GROUPS

   5.  REFERENCE ATOM COORDINATES

  default_name
     Mask @CA,N,C; matches  1056 atoms

--------------------------------------------------------------------------------
   3.  ATOMIC COORDINATES AND VELOCITIES
--------------------------------------------------------------------------------

default_name
 begin time read from input coords =    10.000 ps

 Number of triangulated 3-point waters found:    15105

     Sum of charges from parm topology file =  -0.00000043
     Forcing neutrality...

--------------------------------------------------------------------------------
   4.  RESULTS
 NSTEP =      100   TIME(PS) =      10.100  TEMP(K) =   119.29  PRESS =     0.0
 Etot   =   -165408.0762  EKtot   =     12134.8467  EPtot      =   -177542.9228
 BOND   =       385.6388  ANGLE   =      1020.2600  DIHED      =      1122.5646
 UB     =         0.0000  IMP     =         0.0000  CMAP       =       241.5242
 1-4 NB =       930.2466  1-4 EEL =     15039.4933  VDWAALS    =     28879.2168
 EELEC  =   -225248.2366  EHBOND  =         0.0000  RESTRAINT  =        86.3694
 EAMBER (non-restraint)  =   -177629.2923
 ------------------------------------------------------------------------------

      A V E R A G E S   O V E R     100 S T E P S

 NSTEP =    10000   TIME(PS) =      20.000  TEMP(K) =   195.16  PRESS =     0.0
 Etot   =   -147453.8264  EKtot   =     19851.9625  EPtot      =   -167305.7889
 BOND   =       567.3763  ANGLE   =      1471.6660  DIHED      =      1245.5697
 UB     =         0.0000  IMP     =         0.0000  CMAP       =       240.5155
 1-4 NB =       952.4539  1-4 EEL =     15043.5488  VDWAALS    =     25339.9198
 EELEC  =   -212319.7405  EHBOND  =         0.0000  RESTRAINT  =       152.9016
 EAMBER (non-restraint)  =   -167458.6905
 ------------------------------------------------------------------------------

      R M S  F L U C T U A T I O N S

 NSTEP =    10000   TIME(PS) =      20.000  TEMP(K) =    14.18  PRESS =     0.0
 Etot   =      3359.0380  EKtot   =      1442.7972  EPtot      =      1926.1086
 BOND   =        36.4067  ANGLE   =        82.3734  DIHED      =        25.4578
 UB     =         0.0000  IMP     =         0.0000  CMAP       =         6.2485
 1-4 NB =         9.5478  1-4 EEL =        28.8930  VDWAALS    =       855.4864
 EELEC  =      2585.7225  EHBOND  =         0.0000  RESTRAINT  =        14.4983
 EAMBER (non-restraint)  =      1911.6103
 ------------------------------------------------------------------------------
